/*--------------------------------*- C++ -*----------------------------------*\
| =========                 |                                                 |
| \\      /  F ield         | OpenFOAM: The Open Source CFD Toolbox           |
|  \\    /   O peration     | Version:  v2406                                 |
|   \\  /    A nd           | Website:  www.openfoam.com                      |
|    \\/     M anipulation  |                                                 |
\*---------------------------------------------------------------------------*/
FoamFile
{
    version     2.0;
    format      ascii;
    class       dictionary;
    object      createPatchDict;
}
// * * * * * * * * * * * * * * * * * * * * * * * * * * * * * * * * * * * * * //

// Patches to create
patches
(
    {
        // Master side patch
        name            AMI1;
        patchInfo
        {
            type            cyclicAMI;
            matchTolerance  0.0001;
            neighbourPatch  AMI2;
            transform       noOrdering;
        }
        constructFrom patches;
        patches (cylinder);
    }

    {
        // Slave side patch
        name            AMI2;
        patchInfo
        {
            type            cyclicAMI;
            matchTolerance  0.0001;
            neighbourPatch  AMI1;
            transform       noOrdering;
        }
        constructFrom patches;
        patches (cylinder);
    }

    {
        name inlet;
        patchInfo
        {
            type            patch;
        }
        constructFrom set;
        set inletFaces;
    }

    {
        name outlet;
        patchInfo
        {
            type            patch;
        }
        constructFrom set;
        set outletFaces;
    }
);

// ************************************************************************* //

